opendss_networks/LV2_43bus/Loads.dss
new load.Ld320_LOAD_A phases=1 bus1=B2242.1.4 kv=0.249992666559  vminpu=0.1 vmaxpu=2
new load.Ld2070_LOAD_B phases=1 bus1=B1028.2.4 kv=0.249992666559  vminpu=0.1 vmaxpu=2
new load.Ld2480_LOAD_C phases=1 bus1=B1254.3.4 kv=0.249992666559  vminpu=0.1 vmaxpu=2
new load.Ld2982_LOAD_A phases=1 bus1=B3002.1.4 kv=0.249992666559  vminpu=0.1 vmaxpu=2
new load.Ld3178_LOAD_B phases=1 bus1=B125.2.4 kv=0.249992666559  vminpu=0.1 vmaxpu=2
new load.Ld4552_LOAD_C phases=1 bus1=B3319.3.4 kv=0.249992666559  vminpu=0.1 vmaxpu=2
new load.Ld4568_LOAD_A phases=1 bus1=B2935.1.4 kv=0.249992666559  vminpu=0.1 vmaxpu=2
